
     RDKit          3D

 12 11  0  0  0  0  0  0  0  0999 V2000
   -1.5200    0.0377    0.1149 C   0  0  0  0  0  0  0  0  0  0  0  0
   -0.1441   -0.5034   -0.2621 C   0  0  0  0  0  0  0  0  0  0  0  0
    0.9537    0.5244    0.0226 C   0  0  0  0  0  0  0  0  0  0  0  0
    2.2030    0.0169   -0.3596 O   0  0  0  0  0  0  0  0  0  0  0  0
   -1.5552    0.2813    1.1982 H   0  0  0  0  0  0  0  0  0  0  0  0
   -1.7505    0.9508   -0.4744 H   0  0  0  0  0  0  0  0  0  0  0  0
   -2.2931   -0.7293   -0.1019 H   0  0  0  0  0  0  0  0  0  0  0  0
   -0.1381   -0.7610   -1.3434 H   0  0  0  0  0  0  0  0  0  0  0  0
    0.0535   -1.4291    0.3208 H   0  0  0  0  0  0  0  0  0  0  0  0
    0.7565    1.4489   -0.5611 H   0  0  0  0  0  0  0  0  0  0  0  0
    0.9613    0.7941    1.1037 H   0  0  0  0  0  0  0  0  0  0  0  0
    2.4731   -0.6315    0.3422 H   0  0  0  0  0  0  0  0  0  0  0  0
  1  2  1  0
  2  3  1  0
  3  4  1  0
  1  5  1  0
  1  6  1  0
  1  7  1  0
  2  8  1  0
  2  9  1  0
  3 10  1  0
  3 11  1  0
  4 12  1  0
M  END
