
     RDKit          3D

  9  8  0  0  0  0  0  0  0  0999 V2000
   -0.9257    0.0738    0.0244 C   0  0  0  0  0  0  0  0  0  0  0  0
    0.5132   -0.4192   -0.0683 C   0  0  0  0  0  0  0  0  0  0  0  0
    1.3722    0.4522    0.6151 O   0  0  0  0  0  0  0  0  0  0  0  0
   -1.0191    1.0710   -0.4556 H   0  0  0  0  0  0  0  0  0  0  0  0
   -1.5998   -0.6393   -0.4952 H   0  0  0  0  0  0  0  0  0  0  0  0
   -1.2334    0.1504    1.0888 H   0  0  0  0  0  0  0  0  0  0  0  0
    0.8161   -0.5095   -1.1362 H   0  0  0  0  0  0  0  0  0  0  0  0
    0.5825   -1.4258    0.3954 H   0  0  0  0  0  0  0  0  0  0  0  0
    1.4939    1.2463    0.0317 H   0  0  0  0  0  0  0  0  0  0  0  0
  1  2  1  0
  2  3  1  0
  1  4  1  0
  1  5  1  0
  1  6  1  0
  2  7  1  0
  2  8  1  0
  3  9  1  0
M  END
